Warning: m=xx on .subckt line will override multiplier m hierarchy!

Note: Transient op started
Note: Transient op finished successfully
Note: Optran step size set to 4.000000e-11, (stepsize = finaltime / 50).
******
** ngspice-45.2 : Circuit level simulation program
** Compiled with KLU Direct Linear Solver
** The U. C. Berkeley CAD Group
** Copyright 1985-1994, Regents of the University of California.
** Copyright 2001-2025, The ngspice team.
** Please get your ngspice manual from https://ngspice.sourceforge.io/docs.html
** Please file your bug-reports at http://ngspice.sourceforge.net/bugrep.html
** Creation Date: Thu Sep 25 14:12:41 UTC 2025
******

Note: Compatibility modes selected: hs a


Circuit: *cicsimgen tran

option SCALE: Scale is set to 1e-06 for instance and model parameters
Doing analysis at TEMP = 27.000000 and TNOM = 27.000000

Using KLU as Direct Linear Solver
 Reference value :  1.00000e-12
No. of Data Rows : 58
binary raw file "tran_SchGtKttTtVt.raw"
ngspice-45.2 done
