
Checking parameters for BSIM 4.5 model xdut.xi.xm1:sky130_fd_pr__nfet_01v8__model.23
Fatal: Dsub = -0.493806 is negative.
Warning: Pdibl2 = -0.000820399 is negative.
Fatal error: detected during BSIM4v5.5.0 parameter checking for 
    model xdut.xi.xm1:sky130_fd_pr__nfet_01v8__model.23 of device instance m.xdut.xi.xm1.msky130_fd_pr__nfet_01v8

doAnalyses: no such parameter on this device or parameter is missing

tran simulation(s) aborted
******
** ngspice-45.2 : Circuit level simulation program
** Compiled with KLU Direct Linear Solver
** The U. C. Berkeley CAD Group
** Copyright 1985-1994, Regents of the University of California.
** Copyright 2001-2025, The ngspice team.
** Please get your ngspice manual from https://ngspice.sourceforge.io/docs.html
** Please file your bug-reports at http://ngspice.sourceforge.net/bugrep.html
** Creation Date: Mon Sep 15 19:53:40 UTC 2025
******

Note: No compatibility mode selected!


Circuit: *cicsimgen tran

Doing analysis at TEMP = 27.000000 and TNOM = 27.000000

Using SPARSE 1.3 as Direct Linear Solver
binary raw file "tran_SchGtKttTtVt.raw"
ngspice-45.2 done
